14

Zr 0 0 0
Cu 1.03862e-11 0.907745 0.471335
Cu 0.822059 0.339837 0.485808
Cu -0.822059 0.339837 0.485808
Cu 0.52238 -0.629734 0.596736
Cu -0.52238 -0.629734 0.596736
Cu -0.481867 0.816567 -0.384205
Cu 0.481867 0.816567 -0.384205
Cu -0.931295 -0.021234 -0.430141
Cu 0.931295 -0.021234 -0.430141
Cu -0.471204 -0.843043 -0.359205
Cu 0.471204 -0.843043 -0.359205
Cu -1.01818e-11 0.0956344 1.01666
Cu -1.29639e-11 -0.0150981 -1.00028
