14

Zr 0.0115309 -0.0451148 0.00838669
Cu -0.872221 -1.86539 0.292989
Cu -1.30188 -0.455933 1.54061
Cu 1.0048 -1.82569 -0.162364
Cu -0.414854 -1.25169 -1.53992
Cu 0.525605 -1.10809 1.62858
Cu -1.87276 -0.36952 -0.551173
Cu 0.16257 0.955303 1.68384
Cu -1.62541 1.17288 0.611133
Cu 1.36143 -0.462395 -1.48638
Cu 1.92257 -0.222673 0.557668
Cu 1.54511 1.24627 -0.661581
Cu -0.215228 0.802707 -1.74254
Cu -0.0826015 2.01385 -0.084012
