16

Zr 0 0 0  
Cu 1.86691e-16 1.27043e-16 -0.938134 
Cu 5.81701e-15 0.806828 -0.510976 
Cu -0.747585 0.414754 -0.433311 
Cu -0.747585 -0.414754 -0.433311 
Cu -5.63617e-15 -0.806828 -0.510976 
Cu 0.747585 -0.414754 -0.433311 
Cu 0.747585 0.414754 -0.433311 
Cu -0.443177 0.805788 0.256058 
Cu -0.443177 -0.805788 0.256058 
Cu 0.443177 -0.805788 0.256058 
Cu 0.443177 0.805788 0.256058 
Cu -0.785861 -1.72118e-15 0.51317 
Cu 0.785861 1.7751e-15 0.51317 
Cu 6.47662e-15 -0.414589 0.86481 
Cu -6.31841e-15 0.414589 0.86481 
